446220
  -OEChem-04251011133D

 43 45  0     1  0  0  0  0  0999 V2000
   -0.6923   -0.1549    0.4068 O   0  0  0  0  0  0  0  0  0  0  0  0
    2.1500    2.7599    0.3222 O   0  0  0  0  0  0  0  0  0  0  0  0
    0.3983    1.7946   -0.8339 O   0  0  0  0  0  0  0  0  0  0  0  0
   -1.4554   -2.3104    0.1407 O   0  0  0  0  0  0  0  0  0  0  0  0
    3.1998   -0.3456   -0.8103 N   0  0  2  0  0  0  0  0  0  0  0  0
    3.0908    0.1240    0.5870 C   0  0  1  0  0  0  0  0  0  0  0  0
    2.5793   -1.6811   -0.7568 C   0  0  1  0  0  0  0  0  0  0  0  0
    1.6155    0.5331    0.8254 C   0  0  2  0  0  0  0  0  0  0  0  0
    3.4745   -1.1044    1.4223 C   0  0  0  0  0  0  0  0  0  0  0  0
    3.1264   -2.3020    0.5333 C   0  0  0  0  0  0  0  0  0  0  0  0
    1.0563   -1.4497   -0.6882 C   0  0  0  0  0  0  0  0  0  0  0  0
    0.6422   -0.6278    0.5429 C   0  0  2  0  0  0  0  0  0  0  0  0
    4.5776   -0.3774   -1.2942 C   0  0  0  0  0  0  0  0  0  0  0  0
    1.2951    1.7488   -0.0027 C   0  0  0  0  0  0  0  0  0  0  0  0
   -1.6463   -1.1061    0.2095 C   0  0  0  0  0  0  0  0  0  0  0  0
    1.9565    3.9831   -0.3951 C   0  0  0  0  0  0  0  0  0  0  0  0
   -2.9892   -0.4858    0.0823 C   0  0  0  0  0  0  0  0  0  0  0  0
   -3.9396   -1.1079   -0.7013 C   0  0  0  0  0  0  0  0  0  0  0  0
   -3.2455    0.6932    0.7519 C   0  0  0  0  0  0  0  0  0  0  0  0
   -5.2013   -0.5255   -0.8207 C   0  0  0  0  0  0  0  0  0  0  0  0
   -4.5074    1.2756    0.6326 C   0  0  0  0  0  0  0  0  0  0  0  0
   -5.4853    0.6662   -0.1538 C   0  0  0  0  0  0  0  0  0  0  0  0
    3.7627    0.9639    0.7973 H   0  0  0  0  0  0  0  0  0  0  0  0
    2.8085   -2.2915   -1.6377 H   0  0  0  0  0  0  0  0  0  0  0  0
    1.4706    0.8389    1.8709 H   0  0  0  0  0  0  0  0  0  0  0  0
    2.9520   -1.1442    2.3837 H   0  0  0  0  0  0  0  0  0  0  0  0
    4.5505   -1.1078    1.6340 H   0  0  0  0  0  0  0  0  0  0  0  0
    4.0353   -2.8803    0.3290 H   0  0  0  0  0  0  0  0  0  0  0  0
    2.4109   -2.9750    1.0167 H   0  0  0  0  0  0  0  0  0  0  0  0
    0.7130   -0.9525   -1.6054 H   0  0  0  0  0  0  0  0  0  0  0  0
    0.5924   -2.4399   -0.6927 H   0  0  0  0  0  0  0  0  0  0  0  0
    0.6616   -1.2861    1.4225 H   0  0  0  0  0  0  0  0  0  0  0  0
    4.6033   -0.7386   -2.3281 H   0  0  0  0  0  0  0  0  0  0  0  0
    5.2438   -1.0098   -0.6987 H   0  0  0  0  0  0  0  0  0  0  0  0
    4.9938    0.6360   -1.3059 H   0  0  0  0  0  0  0  0  0  0  0  0
    0.9563    4.3820   -0.2010 H   0  0  0  0  0  0  0  0  0  0  0  0
    2.1073    3.8209   -1.4667 H   0  0  0  0  0  0  0  0  0  0  0  0
    2.6972    4.7053   -0.0417 H   0  0  0  0  0  0  0  0  0  0  0  0
   -3.7293   -2.0340   -1.2280 H   0  0  0  0  0  0  0  0  0  0  0  0
   -2.5060    1.1805    1.3803 H   0  0  0  0  0  0  0  0  0  0  0  0
   -5.9626   -0.9994   -1.4335 H   0  0  0  0  0  0  0  0  0  0  0  0
   -4.7299    2.2020    1.1540 H   0  0  0  0  0  0  0  0  0  0  0  0
   -6.4679    1.1195   -0.2463 H   0  0  0  0  0  0  0  0  0  0  0  0
  1 12  1  0  0  0  0
  1 15  1  0  0  0  0
  2 14  1  0  0  0  0
  2 16  1  0  0  0  0
  3 14  2  0  0  0  0
  4 15  2  0  0  0  0
  5  6  1  0  0  0  0
  5  7  1  0  0  0  0
  5 13  1  0  0  0  0
  6  8  1  0  0  0  0
  6  9  1  0  0  0  0
  6 23  1  0  0  0  0
  7 10  1  0  0  0  0
  7 11  1  0  0  0  0
  7 24  1  0  0  0  0
  8 12  1  0  0  0  0
  8 14  1  0  0  0  0
  8 25  1  0  0  0  0
  9 10  1  0  0  0  0
  9 26  1  0  0  0  0
  9 27  1  0  0  0  0
 10 28  1  0  0  0  0
 10 29  1  0  0  0  0
 11 12  1  0  0  0  0
 11 30  1  0  0  0  0
 11 31  1  0  0  0  0
 12 32  1  0  0  0  0
 13 33  1  0  0  0  0
 13 34  1  0  0  0  0
 13 35  1  0  0  0  0
 15 17  1  0  0  0  0
 16 36  1  0  0  0  0
 16 37  1  0  0  0  0
 16 38  1  0  0  0  0
 17 18  2  0  0  0  0
 17 19  1  0  0  0  0
 18 20  1  0  0  0  0
 18 39  1  0  0  0  0
 19 21  2  0  0  0  0
 19 40  1  0  0  0  0
 20 22  2  0  0  0  0
 20 41  1  0  0  0  0
 21 22  1  0  0  0  0
 21 42  1  0  0  0  0
 22 43  1  0  0  0  0
M  END
> <PUBCHEM_COMPOUND_CID>
446220

> <PUBCHEM_CONFORMER_RMSD>
0.8

> <PUBCHEM_MMFF94_PARTIAL_CHARGES>
24
1 -0.43
12 0.28
13 0.27
14 0.66
15 0.63
16 0.28
17 0.09
18 -0.15
19 -0.15
2 -0.43
20 -0.15
21 -0.15
22 -0.15
3 -0.57
39 0.15
4 -0.57
40 0.15
41 0.15
42 0.15
43 0.15
5 -0.81
6 0.27
7 0.27
8 0.06

> <PUBCHEM_EFFECTIVE_ROTOR_COUNT>
6.2

> <PUBCHEM_PHARMACOPHORE_FEATURES>
7
1 3 acceptor
1 4 acceptor
1 5 cation
5 5 6 7 9 10 rings
6 17 18 19 20 21 22 rings
6 5 6 7 8 11 12 rings
7 6 7 8 9 10 11 12 rings

> <PUBCHEM_HEAVY_ATOM_COUNT>
22

> <PUBCHEM_ATOM_DEF_STEREO_COUNT>
4

> <PUBCHEM_ATOM_UDEF_STEREO_COUNT>
0

> <PUBCHEM_BOND_DEF_STEREO_COUNT>
0

> <PUBCHEM_BOND_UDEF_STEREO_COUNT>
0

> <PUBCHEM_ISOTOPIC_ATOM_COUNT>
0

> <PUBCHEM_COMPONENT_COUNT>
1

> <PUBCHEM_CACTVS_TAUTO_COUNT>
1

> <PUBCHEM_CONFORMER_ID>
0006CF0C00000001

> <PUBCHEM_MMFF94_ENERGY>
64

> <PUBCHEM_FEATURE_SELFOVERLAP>
-9.826

> <PUBCHEM_SHAPE_MULTIPOLES>
424.29
10.14
2.94
1.08
8.34
1.92
1.48
-2.21
-7.08
-1.63
1.8
-2.48
15.31
-4.76

> <PUBCHEM_SHAPE_SELFOVERLAP>
911.533

> <PUBCHEM_SHAPE_VOLUME>
233.3

> <PUBCHEM_COORDINATE_TYPE>
2
5
255

$$$$

