969516
  -OEChem-07161017003D

 47 48  0     0  0  0  0  0  0999 V2000
    7.4029   -1.3263    0.7759 O   0  0  0  0  0  0  0  0  0  0  0  0
   -7.3871   -1.1972   -1.0249 O   0  0  0  0  0  0  0  0  0  0  0  0
    6.3135   -3.3404   -0.7995 O   0  0  0  0  0  0  0  0  0  0  0  0
   -7.4431   -1.9508    1.6498 O   0  0  0  0  0  0  0  0  0  0  0  0
    2.0774    3.9183    0.0082 O   0  0  0  0  0  0  0  0  0  0  0  0
   -0.7337    2.0147   -1.5497 O   0  0  0  0  0  0  0  0  0  0  0  0
    4.2152    0.1624   -0.1618 C   0  0  0  0  0  0  0  0  0  0  0  0
   -4.1499    0.0187    0.1151 C   0  0  0  0  0  0  0  0  0  0  0  0
    0.0325    2.7881    0.6005 C   0  0  0  0  0  0  0  0  0  0  0  0
    5.4636    0.0090    0.4190 C   0  0  0  0  0  0  0  0  0  0  0  0
   -5.2198   -0.2584   -0.7203 C   0  0  0  0  0  0  0  0  0  0  0  0
    6.1754   -1.1716    0.2058 C   0  0  0  0  0  0  0  0  0  0  0  0
   -6.3336   -0.9225   -0.2061 C   0  0  0  0  0  0  0  0  0  0  0  0
    3.6591   -0.8321   -0.9499 C   0  0  0  0  0  0  0  0  0  0  0  0
   -4.1632   -0.3500    1.4506 C   0  0  0  0  0  0  0  0  0  0  0  0
    3.4633    1.4098    0.0623 C   0  0  0  0  0  0  0  0  0  0  0  0
   -2.9736    0.7211   -0.4274 C   0  0  0  0  0  0  0  0  0  0  0  0
    5.6288   -2.1824   -0.5851 C   0  0  0  0  0  0  0  0  0  0  0  0
   -6.3619   -1.3004    1.1364 C   0  0  0  0  0  0  0  0  0  0  0  0
    1.4750    2.8559    0.1393 C   0  0  0  0  0  0  0  0  0  0  0  0
   -0.9161    2.0663   -0.3361 C   0  0  0  0  0  0  0  0  0  0  0  0
    4.3707   -2.0125   -1.1631 C   0  0  0  0  0  0  0  0  0  0  0  0
   -5.2767   -1.0140    1.9646 C   0  0  0  0  0  0  0  0  0  0  0  0
    2.1398    1.5414   -0.1041 C   0  0  0  0  0  0  0  0  0  0  0  0
   -2.0693    1.3763    0.3142 C   0  0  0  0  0  0  0  0  0  0  0  0
    7.8896   -0.2460    1.5698 C   0  0  0  0  0  0  0  0  0  0  0  0
   -7.2788   -0.7771   -2.3836 C   0  0  0  0  0  0  0  0  0  0  0  0
   -0.3396    3.8125    0.7159 H   0  0  0  0  0  0  0  0  0  0  0  0
    0.0292    2.3169    1.5899 H   0  0  0  0  0  0  0  0  0  0  0  0
    5.8387    0.8262    1.0258 H   0  0  0  0  0  0  0  0  0  0  0  0
   -5.1448    0.0602   -1.7545 H   0  0  0  0  0  0  0  0  0  0  0  0
    2.6936   -0.7339   -1.4362 H   0  0  0  0  0  0  0  0  0  0  0  0
   -3.3333   -0.1676    2.1258 H   0  0  0  0  0  0  0  0  0  0  0  0
    4.0582    2.2679    0.3672 H   0  0  0  0  0  0  0  0  0  0  0  0
   -2.8704    0.6886   -1.5096 H   0  0  0  0  0  0  0  0  0  0  0  0
    3.9419   -2.7946   -1.7839 H   0  0  0  0  0  0  0  0  0  0  0  0
   -5.2841   -1.3074    3.0111 H   0  0  0  0  0  0  0  0  0  0  0  0
    1.4908    0.7093   -0.3479 H   0  0  0  0  0  0  0  0  0  0  0  0
   -2.1353    1.4686    1.3916 H   0  0  0  0  0  0  0  0  0  0  0  0
    7.1616   -3.2862   -0.3257 H   0  0  0  0  0  0  0  0  0  0  0  0
   -7.2855   -2.1323    2.5922 H   0  0  0  0  0  0  0  0  0  0  0  0
    7.2578   -0.0732    2.4478 H   0  0  0  0  0  0  0  0  0  0  0  0
    8.0337    0.6611    0.9731 H   0  0  0  0  0  0  0  0  0  0  0  0
    8.8763   -0.5400    1.9427 H   0  0  0  0  0  0  0  0  0  0  0  0
   -6.4576   -1.2860   -2.8996 H   0  0  0  0  0  0  0  0  0  0  0  0
   -7.2124    0.3132   -2.4653 H   0  0  0  0  0  0  0  0  0  0  0  0
   -8.2037   -1.0768   -2.8876 H   0  0  0  0  0  0  0  0  0  0  0  0
  1 12  1  0  0  0  0
  1 26  1  0  0  0  0
  2 13  1  0  0  0  0
  2 27  1  0  0  0  0
  3 18  1  0  0  0  0
  3 40  1  0  0  0  0
  4 19  1  0  0  0  0
  4 41  1  0  0  0  0
  5 20  2  0  0  0  0
  6 21  2  0  0  0  0
  7 10  2  0  0  0  0
  7 14  1  0  0  0  0
  7 16  1  0  0  0  0
  8 11  2  0  0  0  0
  8 15  1  0  0  0  0
  8 17  1  0  0  0  0
  9 20  1  0  0  0  0
  9 21  1  0  0  0  0
  9 28  1  0  0  0  0
  9 29  1  0  0  0  0
 10 12  1  0  0  0  0
 10 30  1  0  0  0  0
 11 13  1  0  0  0  0
 11 31  1  0  0  0  0
 12 18  2  0  0  0  0
 13 19  2  0  0  0  0
 14 22  2  0  0  0  0
 14 32  1  0  0  0  0
 15 23  2  0  0  0  0
 15 33  1  0  0  0  0
 16 24  2  0  0  0  0
 16 34  1  0  0  0  0
 17 25  2  0  0  0  0
 17 35  1  0  0  0  0
 18 22  1  0  0  0  0
 19 23  1  0  0  0  0
 20 24  1  0  0  0  0
 21 25  1  0  0  0  0
 22 36  1  0  0  0  0
 23 37  1  0  0  0  0
 24 38  1  0  0  0  0
 25 39  1  0  0  0  0
 26 42  1  0  0  0  0
 26 43  1  0  0  0  0
 26 44  1  0  0  0  0
 27 45  1  0  0  0  0
 27 46  1  0  0  0  0
 27 47  1  0  0  0  0
M  END
> <PUBCHEM_COMPOUND_CID>
969516

> <PUBCHEM_CONFORMER_RMSD>
1

> <PUBCHEM_CONFORMER_DIVERSEORDER>
82
57
61
21
43
55
78
4
26
6
54
47
46
35
74
30
81
73
17
63
60
80
39
14
72
34
3
40
2
69
32
25
1
70
65
56
36
41
49
37
33
58
27
45
23
71
42
13
38
48
76
29
28
5
52
59
77
8
50
31
62
44
9
79
22
75
68
51
64
16
66
24
67
7
20
12
11
19
18
10
15
53

> <PUBCHEM_MMFF94_PARTIAL_CHARGES>
39
1 -0.36
10 -0.15
11 -0.15
12 0.08
13 0.08
14 -0.15
15 -0.15
16 -0.18
17 -0.18
18 0.08
19 0.08
2 -0.36
20 0.49
21 0.49
22 -0.15
23 -0.15
24 -0.14
25 -0.14
26 0.28
27 0.28
3 -0.53
30 0.15
31 0.15
32 0.15
33 0.15
34 0.15
35 0.15
36 0.15
37 0.15
38 0.15
39 0.15
4 -0.53
40 0.45
41 0.45
5 -0.57
6 -0.57
7 0.03
8 0.03
9 0.12

> <PUBCHEM_EFFECTIVE_ROTOR_COUNT>
8

> <PUBCHEM_PHARMACOPHORE_FEATURES>
9
1 1 acceptor
1 2 acceptor
1 3 donor
1 4 donor
1 5 acceptor
1 6 acceptor
1 9 anion
6 7 10 12 14 18 22 rings
6 8 11 13 15 19 23 rings

> <PUBCHEM_HEAVY_ATOM_COUNT>
27

> <PUBCHEM_ATOM_DEF_STEREO_COUNT>
0

> <PUBCHEM_ATOM_UDEF_STEREO_COUNT>
0

> <PUBCHEM_BOND_DEF_STEREO_COUNT>
2

> <PUBCHEM_BOND_UDEF_STEREO_COUNT>
0

> <PUBCHEM_ISOTOPIC_ATOM_COUNT>
0

> <PUBCHEM_COMPONENT_COUNT>
1

> <PUBCHEM_CACTVS_TAUTO_COUNT>
49

> <PUBCHEM_CONFORMER_ID>
000ECB2C00000052

> <PUBCHEM_MMFF94_ENERGY>
92.651

> <PUBCHEM_FEATURE_SELFOVERLAP>
45.668

> <PUBCHEM_SHAPE_MULTIPOLES>
520.43
25.03
3.33
1.58
4.24
-21.47
-2.47
3.67
5.61
11.01
-6.25
6.02
13.63
-55.19

> <PUBCHEM_SHAPE_SELFOVERLAP>
1103.249

> <PUBCHEM_SHAPE_VOLUME>
290

> <PUBCHEM_COORDINATE_TYPE>
2
5
255

$$$$

