6089
  -OEChem-05281017403D

 30 31  0     0  0  0  0  0  0999 V2000
   -3.7053    0.0706   -0.0401 N   0  0  0  0  0  0  0  0  0  0  0  0
    1.7712   -2.0043   -0.1341 N   0  0  0  0  0  0  0  0  0  0  0  0
   -1.4353   -0.5173    0.7821 C   0  0  0  0  0  0  0  0  0  0  0  0
   -0.0460   -0.8503    0.4070 C   0  0  0  0  0  0  0  0  0  0  0  0
   -2.3469   -0.2847   -0.4367 C   0  0  0  0  0  0  0  0  0  0  0  0
    1.0205    0.0694    0.2029 C   0  0  0  0  0  0  0  0  0  0  0  0
    2.1491   -0.6804   -0.1355 C   0  0  0  0  0  0  0  0  0  0  0  0
    0.4465   -2.1169    0.1925 C   0  0  0  0  0  0  0  0  0  0  0  0
    1.1345    1.4720    0.2738 C   0  0  0  0  0  0  0  0  0  0  0  0
    3.3909   -0.0953   -0.4075 C   0  0  0  0  0  0  0  0  0  0  0  0
   -4.5342    0.3292   -1.2184 C   0  0  0  0  0  0  0  0  0  0  0  0
   -3.6953    1.2393    0.8408 C   0  0  0  0  0  0  0  0  0  0  0  0
    2.3704    2.0711    0.0041 C   0  0  0  0  0  0  0  0  0  0  0  0
    3.4799    1.2975   -0.3311 C   0  0  0  0  0  0  0  0  0  0  0  0
   -1.8531   -1.3231    1.4003 H   0  0  0  0  0  0  0  0  0  0  0  0
   -1.3878    0.3679    1.4256 H   0  0  0  0  0  0  0  0  0  0  0  0
   -2.3709   -1.2039   -1.0366 H   0  0  0  0  0  0  0  0  0  0  0  0
   -1.9091    0.4957   -1.0747 H   0  0  0  0  0  0  0  0  0  0  0  0
   -0.0251   -3.0885    0.2421 H   0  0  0  0  0  0  0  0  0  0  0  0
    2.3839   -2.7801   -0.3440 H   0  0  0  0  0  0  0  0  0  0  0  0
    0.2795    2.0903    0.5320 H   0  0  0  0  0  0  0  0  0  0  0  0
    4.2552   -0.6967   -0.6686 H   0  0  0  0  0  0  0  0  0  0  0  0
   -4.5623   -0.5515   -1.8699 H   0  0  0  0  0  0  0  0  0  0  0  0
   -4.1677    1.1803   -1.8039 H   0  0  0  0  0  0  0  0  0  0  0  0
   -5.5699    0.5326   -0.9242 H   0  0  0  0  0  0  0  0  0  0  0  0
   -4.7170    1.6070    0.9977 H   0  0  0  0  0  0  0  0  0  0  0  0
   -3.1053    2.0685    0.4335 H   0  0  0  0  0  0  0  0  0  0  0  0
   -3.3332    0.9901    1.8430 H   0  0  0  0  0  0  0  0  0  0  0  0
    2.4640    3.1526    0.0568 H   0  0  0  0  0  0  0  0  0  0  0  0
    4.4302    1.7837   -0.5367 H   0  0  0  0  0  0  0  0  0  0  0  0
  1  5  1  0  0  0  0
  1 11  1  0  0  0  0
  1 12  1  0  0  0  0
  2  7  1  0  0  0  0
  2  8  1  0  0  0  0
  2 20  1  0  0  0  0
  3  4  1  0  0  0  0
  3  5  1  0  0  0  0
  3 15  1  0  0  0  0
  3 16  1  0  0  0  0
  4  6  1  0  0  0  0
  4  8  2  0  0  0  0
  5 17  1  0  0  0  0
  5 18  1  0  0  0  0
  6  7  1  0  0  0  0
  6  9  2  0  0  0  0
  7 10  2  0  0  0  0
  8 19  1  0  0  0  0
  9 13  1  0  0  0  0
  9 21  1  0  0  0  0
 10 14  1  0  0  0  0
 10 22  1  0  0  0  0
 11 23  1  0  0  0  0
 11 24  1  0  0  0  0
 11 25  1  0  0  0  0
 12 26  1  0  0  0  0
 12 27  1  0  0  0  0
 12 28  1  0  0  0  0
 13 14  2  0  0  0  0
 13 29  1  0  0  0  0
 14 30  1  0  0  0  0
M  END
> <PUBCHEM_COMPOUND_CID>
6089

> <PUBCHEM_CONFORMER_RMSD>
0.6

> <PUBCHEM_MMFF94_PARTIAL_CHARGES>
19
1 -0.81
10 -0.15
11 0.27
12 0.27
13 -0.15
14 -0.15
19 0.15
2 0.03
20 0.27
21 0.15
22 0.15
29 0.15
3 0.18
30 0.15
4 -0.18
5 0.27
7 -0.15
8 -0.3
9 -0.15

> <PUBCHEM_EFFECTIVE_ROTOR_COUNT>
3

> <PUBCHEM_PHARMACOPHORE_FEATURES>
5
1 1 cation
1 2 cation
1 2 donor
5 2 4 6 7 8 rings
6 6 7 9 10 13 14 rings

> <PUBCHEM_HEAVY_ATOM_COUNT>
14

> <PUBCHEM_ATOM_DEF_STEREO_COUNT>
0

> <PUBCHEM_ATOM_UDEF_STEREO_COUNT>
0

> <PUBCHEM_BOND_DEF_STEREO_COUNT>
0

> <PUBCHEM_BOND_UDEF_STEREO_COUNT>
0

> <PUBCHEM_ISOTOPIC_ATOM_COUNT>
0

> <PUBCHEM_COMPONENT_COUNT>
1

> <PUBCHEM_CACTVS_TAUTO_COUNT>
1

> <PUBCHEM_CONFORMER_ID>
000017C900000001

> <PUBCHEM_MMFF94_ENERGY>
24.9637

> <PUBCHEM_FEATURE_SELFOVERLAP>
-5.018

> <PUBCHEM_SHAPE_MULTIPOLES>
278.15
7.33
2
0.87
6.32
-2.87
-1.68
2.37
-1.72
1.5
-3.72
-0.51
8.78
-7.25

> <PUBCHEM_SHAPE_SELFOVERLAP>
587.844

> <PUBCHEM_SHAPE_VOLUME>
159.1

> <PUBCHEM_COORDINATE_TYPE>
2
5
255

$$$$

