24749
  -OEChem-04251011413D

 24 23  0     1  0  0  0  0  0999 V2000
   -0.6578   -0.9686   -1.4168 O   0  0  0  0  0  0  0  0  0  0  0  0
    0.7767    1.1642    1.1948 O   0  0  0  0  0  0  0  0  0  0  0  0
   -2.2091    1.2379   -0.6049 O   0  0  0  0  0  0  0  0  0  0  0  0
    2.9464    1.1904   -0.4795 O   0  0  0  0  0  0  0  0  0  0  0  0
   -4.2172   -0.2276    0.6508 O   0  0  0  0  0  0  0  0  0  0  0  0
    3.5594   -1.0340    0.8468 O   0  0  0  0  0  0  0  0  0  0  0  0
   -0.5067   -0.3870   -0.1174 C   0  0  1  0  0  0  0  0  0  0  0  0
    0.6457    0.6325   -0.1292 C   0  0  2  0  0  0  0  0  0  0  0  0
   -1.8774    0.1700    0.2946 C   0  0  2  0  0  0  0  0  0  0  0  0
    2.0098    0.1273   -0.6177 C   0  0  2  0  0  0  0  0  0  0  0  0
   -3.0103   -0.8476    0.2154 C   0  0  0  0  0  0  0  0  0  0  0  0
    2.5405   -1.0573    0.1631 C   0  0  0  0  0  0  0  0  0  0  0  0
   -0.2628   -1.2006    0.5755 H   0  0  0  0  0  0  0  0  0  0  0  0
    0.3692    1.4790   -0.7708 H   0  0  0  0  0  0  0  0  0  0  0  0
   -1.8260    0.6036    1.2997 H   0  0  0  0  0  0  0  0  0  0  0  0
    1.9589   -0.1571   -1.6739 H   0  0  0  0  0  0  0  0  0  0  0  0
   -2.8158   -1.7189    0.8482 H   0  0  0  0  0  0  0  0  0  0  0  0
   -3.1812   -1.1845   -0.8116 H   0  0  0  0  0  0  0  0  0  0  0  0
   -0.8740   -0.2503   -2.0359 H   0  0  0  0  0  0  0  0  0  0  0  0
    1.4908    1.8239    1.1739 H   0  0  0  0  0  0  0  0  0  0  0  0
    1.9548   -1.9876    0.0691 H   0  0  0  0  0  0  0  0  0  0  0  0
   -3.0677    1.5982   -0.3236 H   0  0  0  0  0  0  0  0  0  0  0  0
    3.7714    0.9111   -0.9124 H   0  0  0  0  0  0  0  0  0  0  0  0
   -4.0887    0.0454    1.5752 H   0  0  0  0  0  0  0  0  0  0  0  0
  1  7  1  0  0  0  0
  1 19  1  0  0  0  0
  2  8  1  0  0  0  0
  2 20  1  0  0  0  0
  3  9  1  0  0  0  0
  3 22  1  0  0  0  0
  4 10  1  0  0  0  0
  4 23  1  0  0  0  0
  5 11  1  0  0  0  0
  5 24  1  0  0  0  0
  6 12  2  0  0  0  0
  7  8  1  0  0  0  0
  7  9  1  0  0  0  0
  7 13  1  0  0  0  0
  8 10  1  0  0  0  0
  8 14  1  0  0  0  0
  9 11  1  0  0  0  0
  9 15  1  0  0  0  0
 10 12  1  0  0  0  0
 10 16  1  0  0  0  0
 11 17  1  0  0  0  0
 11 18  1  0  0  0  0
 12 21  1  0  0  0  0
M  END
> <PUBCHEM_COMPOUND_CID>
24749

> <PUBCHEM_CONFORMER_RMSD>
0.6

> <PUBCHEM_MMFF94_PARTIAL_CHARGES>
18
1 -0.68
10 0.34
11 0.28
12 0.45
19 0.4
2 -0.68
20 0.4
21 0.06
22 0.4
23 0.4
24 0.4
3 -0.68
4 -0.68
5 -0.68
6 -0.57
7 0.28
8 0.28
9 0.28

> <PUBCHEM_EFFECTIVE_ROTOR_COUNT>
5

> <PUBCHEM_PHARMACOPHORE_FEATURES>
11
1 1 acceptor
1 1 donor
1 2 acceptor
1 2 donor
1 3 acceptor
1 3 donor
1 4 acceptor
1 4 donor
1 5 acceptor
1 5 donor
1 6 acceptor

> <PUBCHEM_HEAVY_ATOM_COUNT>
12

> <PUBCHEM_ATOM_DEF_STEREO_COUNT>
0

> <PUBCHEM_ATOM_UDEF_STEREO_COUNT>
4

> <PUBCHEM_BOND_DEF_STEREO_COUNT>
0

> <PUBCHEM_BOND_UDEF_STEREO_COUNT>
0

> <PUBCHEM_ISOTOPIC_ATOM_COUNT>
0

> <PUBCHEM_COMPONENT_COUNT>
1

> <PUBCHEM_CACTVS_TAUTO_COUNT>
6

> <PUBCHEM_CONFORMER_ID>
000060AD00000001

> <PUBCHEM_MMFF94_ENERGY>
20.4871

> <PUBCHEM_FEATURE_SELFOVERLAP>
-11.007

> <PUBCHEM_SHAPE_MULTIPOLES>
211.74
6
1.24
0.98
1.37
-1.1
-1.11
1.81
-1.12
0.59
-2.21
-0.72
2.55
-2.85

> <PUBCHEM_SHAPE_SELFOVERLAP>
402.952

> <PUBCHEM_SHAPE_VOLUME>
129.5

> <PUBCHEM_COORDINATE_TYPE>
2
5
255

$$$$

