
  -OEChem-10051009482D

 92116  0     0  0  0  0  0  0999 V2000
   -3.5724    2.0625    0.0000 C   0  0  0  0  0  0  0  0  0  0  0  0
    0.0000    4.1250    0.0000 C   0  0  0  0  0  0  0  0  0  0  0  0
    0.0000   -4.1250    0.0000 C   0  0  0  0  0  0  0  0  0  0  0  0
    3.5724   -2.0625    0.0000 C   0  0  0  0  0  0  0  0  0  0  0  0
   -4.2868    0.8250    0.0000 C   0  0  0  0  0  0  0  0  0  0  0  0
    1.4289    4.1250    0.0000 C   0  0  0  0  0  0  0  0  0  0  0  0
   -1.4289   -4.1250    0.0000 C   0  0  0  0  0  0  0  0  0  0  0  0
    4.2868   -0.8250    0.0000 C   0  0  0  0  0  0  0  0  0  0  0  0
   -2.8579    3.3000    0.0000 C   0  0  0  0  0  0  0  0  0  0  0  0
   -1.4289    4.1250    0.0000 C   0  0  0  0  0  0  0  0  0  0  0  0
    1.4289   -4.1250    0.0000 C   0  0  0  0  0  0  0  0  0  0  0  0
    2.8579   -3.3000    0.0000 C   0  0  0  0  0  0  0  0  0  0  0  0
   -2.8579   -4.1250    0.0000 C   0  0  0  0  0  0  0  0  0  0  0  0
    5.0013    0.4125    0.0000 C   0  0  0  0  0  0  0  0  0  0  0  0
   -5.0013   -0.4125    0.0000 C   0  0  0  0  0  0  0  0  0  0  0  0
    2.8579    4.1250    0.0000 C   0  0  0  0  0  0  0  0  0  0  0  0
   -4.2868   -4.1250    0.0000 C   0  0  0  0  0  0  0  0  0  0  0  0
    5.7158    1.6500    0.0000 C   0  0  0  0  0  0  0  0  0  0  0  0
   -5.7158   -1.6500    0.0000 C   0  0  0  0  0  0  0  0  0  0  0  0
    4.2868    4.1250    0.0000 C   0  0  0  0  0  0  0  0  0  0  0  0
   -5.7158   -3.3000    0.0000 C   0  0  0  0  0  0  0  0  0  0  0  0
    5.7158    3.3000    0.0000 C   0  0  0  0  0  0  0  0  0  0  0  0
   -0.7145   -0.4125    0.0000 C   0  0  0  0  0  0  0  0  0  0  0  0
    0.7145    0.4125    0.0000 C   0  0  0  0  0  0  0  0  0  0  0  0
   -0.7145    0.4125    0.0000 C   0  0  0  0  0  0  0  0  0  0  0  0
    0.0000    0.8250    0.0000 C   0  0  0  0  0  0  0  0  0  0  0  0
    0.0000   -0.8250    0.0000 C   0  0  0  0  0  0  0  0  0  0  0  0
    0.7145   -0.4125    0.0000 C   0  0  0  0  0  0  0  0  0  0  0  0
   -1.4289   -0.8250    0.0000 C   0  0  0  0  0  0  0  0  0  0  0  0
    1.4289    0.8250    0.0000 C   0  0  0  0  0  0  0  0  0  0  0  0
   -1.4289    0.8250    0.0000 C   0  0  0  0  0  0  0  0  0  0  0  0
    0.0000    1.6500    0.0000 C   0  0  0  0  0  0  0  0  0  0  0  0
    0.0000   -1.6500    0.0000 C   0  0  0  0  0  0  0  0  0  0  0  0
    1.4289   -0.8250    0.0000 C   0  0  0  0  0  0  0  0  0  0  0  0
   -2.1434   -0.4125    0.0000 C   0  0  0  0  0  0  0  0  0  0  0  0
    1.4289    1.6500    0.0000 C   0  0  0  0  0  0  0  0  0  0  0  0
   -1.4289   -1.6500    0.0000 C   0  0  0  0  0  0  0  0  0  0  0  0
    2.1434    0.4125    0.0000 C   0  0  0  0  0  0  0  0  0  0  0  0
   -2.1434    0.4125    0.0000 C   0  0  0  0  0  0  0  0  0  0  0  0
    0.7145    2.0625    0.0000 C   0  0  0  0  0  0  0  0  0  0  0  0
   -0.7145   -2.0625    0.0000 C   0  0  0  0  0  0  0  0  0  0  0  0
    2.1434   -0.4125    0.0000 C   0  0  0  0  0  0  0  0  0  0  0  0
   -1.4289    1.6500    0.0000 C   0  0  0  0  0  0  0  0  0  0  0  0
   -0.7145    2.0625    0.0000 C   0  0  0  0  0  0  0  0  0  0  0  0
    0.7145   -2.0625    0.0000 C   0  0  0  0  0  0  0  0  0  0  0  0
    1.4289   -1.6500    0.0000 C   0  0  0  0  0  0  0  0  0  0  0  0
   -2.8579   -0.8250    0.0000 C   0  0  0  0  0  0  0  0  0  0  0  0
    2.1434    2.0625    0.0000 C   0  0  0  0  0  0  0  0  0  0  0  0
   -2.1434   -2.0625    0.0000 C   0  0  0  0  0  0  0  0  0  0  0  0
    2.8579    0.8250    0.0000 C   0  0  0  0  0  0  0  0  0  0  0  0
   -2.8579   -1.6500    0.0000 C   0  0  0  0  0  0  0  0  0  0  0  0
    2.8579    1.6500    0.0000 C   0  0  0  0  0  0  0  0  0  0  0  0
   -2.8579    0.8250    0.0000 C   0  0  0  0  0  0  0  0  0  0  0  0
    0.7145    2.8875    0.0000 C   0  0  0  0  0  0  0  0  0  0  0  0
   -0.7145   -2.8875    0.0000 C   0  0  0  0  0  0  0  0  0  0  0  0
    2.8579   -0.8250    0.0000 C   0  0  0  0  0  0  0  0  0  0  0  0
   -2.1434    2.0625    0.0000 C   0  0  0  0  0  0  0  0  0  0  0  0
   -0.7145    2.8875    0.0000 C   0  0  0  0  0  0  0  0  0  0  0  0
    0.7145   -2.8875    0.0000 C   0  0  0  0  0  0  0  0  0  0  0  0
    2.1434   -2.0625    0.0000 C   0  0  0  0  0  0  0  0  0  0  0  0
   -3.5724   -0.4125    0.0000 C   0  0  0  0  0  0  0  0  0  0  0  0
    2.1434    2.8875    0.0000 C   0  0  0  0  0  0  0  0  0  0  0  0
   -2.1434   -2.8875    0.0000 C   0  0  0  0  0  0  0  0  0  0  0  0
    3.5724    0.4125    0.0000 C   0  0  0  0  0  0  0  0  0  0  0  0
   -3.5724   -2.0625    0.0000 C   0  0  0  0  0  0  0  0  0  0  0  0
    3.5724    2.0625    0.0000 C   0  0  0  0  0  0  0  0  0  0  0  0
   -2.8579    1.6500    0.0000 C   0  0  0  0  0  0  0  0  0  0  0  0
    0.0000    3.3000    0.0000 C   0  0  0  0  0  0  0  0  0  0  0  0
    0.0000   -3.3000    0.0000 C   0  0  0  0  0  0  0  0  0  0  0  0
    2.8579   -1.6500    0.0000 C   0  0  0  0  0  0  0  0  0  0  0  0
   -3.5724    0.4125    0.0000 C   0  0  0  0  0  0  0  0  0  0  0  0
    1.4289    3.3000    0.0000 C   0  0  0  0  0  0  0  0  0  0  0  0
   -1.4289   -3.3000    0.0000 C   0  0  0  0  0  0  0  0  0  0  0  0
    3.5724   -0.4125    0.0000 C   0  0  0  0  0  0  0  0  0  0  0  0
   -2.1434    2.8875    0.0000 C   0  0  0  0  0  0  0  0  0  0  0  0
   -1.4289    3.3000    0.0000 C   0  0  0  0  0  0  0  0  0  0  0  0
    1.4289   -3.3000    0.0000 C   0  0  0  0  0  0  0  0  0  0  0  0
    2.1434   -2.8875    0.0000 C   0  0  0  0  0  0  0  0  0  0  0  0
   -4.2868   -1.6500    0.0000 C   0  0  0  0  0  0  0  0  0  0  0  0
   -3.5724   -2.8875    0.0000 C   0  0  0  0  0  0  0  0  0  0  0  0
    3.5724    2.8875    0.0000 C   0  0  0  0  0  0  0  0  0  0  0  0
    4.2868    1.6500    0.0000 C   0  0  0  0  0  0  0  0  0  0  0  0
   -2.8579   -3.3000    0.0000 C   0  0  0  0  0  0  0  0  0  0  0  0
    4.2868    0.8250    0.0000 C   0  0  0  0  0  0  0  0  0  0  0  0
   -4.2868   -0.8250    0.0000 C   0  0  0  0  0  0  0  0  0  0  0  0
    2.8579    3.3000    0.0000 C   0  0  0  0  0  0  0  0  0  0  0  0
   -4.2868   -3.3000    0.0000 C   0  0  0  0  0  0  0  0  0  0  0  0
    5.0013    2.0625    0.0000 C   0  0  0  0  0  0  0  0  0  0  0  0
   -5.0013   -2.0625    0.0000 C   0  0  0  0  0  0  0  0  0  0  0  0
    4.2868    3.3000    0.0000 C   0  0  0  0  0  0  0  0  0  0  0  0
   -5.0013   -2.8875    0.0000 C   0  0  0  0  0  0  0  0  0  0  0  0
    5.0013    2.8875    0.0000 C   0  0  0  0  0  0  0  0  0  0  0  0
  1 67  1  0  0  0  0
  2 68  1  0  0  0  0
  3 69  1  0  0  0  0
  4 70  1  0  0  0  0
  5 71  1  0  0  0  0
  6 72  1  0  0  0  0
  7 73  1  0  0  0  0
  8 74  1  0  0  0  0
  9 75  1  0  0  0  0
 10 76  1  0  0  0  0
 11 77  1  0  0  0  0
 12 78  1  0  0  0  0
 13 83  1  0  0  0  0
 14 84  1  0  0  0  0
 15 85  1  0  0  0  0
 16 86  1  0  0  0  0
 17 87  1  0  0  0  0
 18 88  1  0  0  0  0
 19 89  1  0  0  0  0
 20 90  1  0  0  0  0
 21 91  1  0  0  0  0
 22 92  1  0  0  0  0
 23 25  2  0  0  0  0
 23 27  1  0  0  0  0
 23 29  1  0  0  0  0
 24 26  2  0  0  0  0
 24 28  1  0  0  0  0
 24 30  1  0  0  0  0
 25 26  1  0  0  0  0
 25 31  1  0  0  0  0
 26 32  1  0  0  0  0
 27 28  2  0  0  0  0
 27 33  1  0  0  0  0
 28 34  1  0  0  0  0
 29 35  2  0  0  0  0
 29 37  1  0  0  0  0
 30 36  2  0  0  0  0
 30 38  1  0  0  0  0
 31 39  2  0  0  0  0
 31 43  1  0  0  0  0
 32 40  2  0  0  0  0
 32 44  1  0  0  0  0
 33 41  2  0  0  0  0
 33 45  1  0  0  0  0
 34 42  2  0  0  0  0
 34 46  1  0  0  0  0
 35 39  1  0  0  0  0
 35 47  1  0  0  0  0
 36 40  1  0  0  0  0
 36 48  1  0  0  0  0
 37 41  1  0  0  0  0
 37 49  2  0  0  0  0
 38 42  1  0  0  0  0
 38 50  2  0  0  0  0
 39 53  1  0  0  0  0
 40 54  1  0  0  0  0
 41 55  1  0  0  0  0
 42 56  1  0  0  0  0
 43 44  2  0  0  0  0
 43 57  1  0  0  0  0
 44 58  1  0  0  0  0
 45 46  2  0  0  0  0
 45 59  1  0  0  0  0
 46 60  1  0  0  0  0
 47 51  1  0  0  0  0
 47 61  2  0  0  0  0
 48 52  1  0  0  0  0
 48 62  2  0  0  0  0
 49 51  1  0  0  0  0
 49 63  1  0  0  0  0
 50 52  1  0  0  0  0
 50 64  1  0  0  0  0
 51 65  2  0  0  0  0
 52 66  2  0  0  0  0
 53 67  1  0  0  0  0
 53 71  2  0  0  0  0
 54 68  1  0  0  0  0
 54 72  2  0  0  0  0
 55 69  1  0  0  0  0
 55 73  2  0  0  0  0
 56 70  1  0  0  0  0
 56 74  2  0  0  0  0
 57 67  2  0  0  0  0
 57 75  1  0  0  0  0
 58 68  2  0  0  0  0
 58 76  1  0  0  0  0
 59 69  2  0  0  0  0
 59 77  1  0  0  0  0
 60 70  2  0  0  0  0
 60 78  1  0  0  0  0
 61 71  1  0  0  0  0
 61 85  1  0  0  0  0
 62 72  1  0  0  0  0
 62 86  1  0  0  0  0
 63 73  1  0  0  0  0
 63 83  2  0  0  0  0
 64 74  1  0  0  0  0
 64 84  2  0  0  0  0
 65 79  1  0  0  0  0
 65 80  1  0  0  0  0
 66 81  1  0  0  0  0
 66 82  1  0  0  0  0
 75 76  2  0  0  0  0
 77 78  2  0  0  0  0
 79 85  2  0  0  0  0
 79 89  1  0  0  0  0
 80 83  1  0  0  0  0
 80 87  2  0  0  0  0
 81 86  2  0  0  0  0
 81 90  1  0  0  0  0
 82 84  1  0  0  0  0
 82 88  2  0  0  0  0
 87 91  1  0  0  0  0
 88 92  1  0  0  0  0
 89 91  2  0  0  0  0
 90 92  2  0  0  0  0
A    1
Du
A    2
Du
A    3
Du
A    4
Du
A    5
Du
A    6
Du
A    7
Du
A    8
Du
A    9
Du
A   10
Du
A   11
Du
A   12
Du
A   13
Du
A   14
Du
A   15
Du
A   16
Du
A   17
Du
A   18
Du
A   19
Du
A   20
Du
A   21
Du
A   22
Du
M  END
> <PUBCHEM_COMPOUND_ID_TYPE>
0

> <PUBCHEM_TOTAL_CHARGE>
0

> <PUBCHEM_SUBSTANCE_ID>
17425340

> <PUBCHEM_SUBSTANCE_VERSION>
6

> <PUBCHEM_EXT_DATASOURCE_NAME>
ChEBI

> <PUBCHEM_EXT_DATASOURCE_REGID>
CHEBI:36973

> <PUBCHEM_SUBSTANCE_COMMENT>
Previously, descriptions such as graphite layers, carbon layers or carbon sheets have been used for the term graphene. Because graphite designates that modification of the chemical element carbon, in which planar sheets of carbon atoms, each atom bound to three neighbours in a honeycomb-like structure, are stacked in a three-dimensional regular order, it is not correct to use for a single layer a term which includes the term graphite, which would imply a three-dimensional structure. The term graphene should be used only when the reactions, structural relations or other properties of individual layers are discussed.

> <PUBCHEM_SUBSTANCE_SYNONYM>
CHEBI:36973
graphene
graphene layer

> <PUBCHEM_XREF_EXT_ID>
CHEBI:36973

> <PUBCHEM_EXT_DATASOURCE_URL>
http://www.ebi.ac.uk/chebi/

> <PUBCHEM_EXT_SUBSTANCE_URL>
http://www.ebi.ac.uk/chebi/searchId.do?chebiId=CHEBI:36973

> <PUBCHEM_COORDINATE_TYPE>
1
3

$$$$

