4236
  -OEChem-07181002163D

 34 35  0     1  0  0  0  0  0999 V2000
   -0.9501   -1.3296   -0.4483 S   0  0  2  0  0  0  0  0  0  0  0  0
   -0.6587   -2.7047    0.0393 O   0  0  0  0  0  0  0  0  0  0  0  0
   -4.0124   -1.4111   -1.2303 O   0  0  0  0  0  0  0  0  0  0  0  0
   -4.3180   -2.0980    0.9414 N   0  0  0  0  0  0  0  0  0  0  0  0
    0.2271   -0.2123    0.4418 C   0  0  0  0  0  0  0  0  0  0  0  0
   -0.0707    1.2358    0.2451 C   0  0  0  0  0  0  0  0  0  0  0  0
    1.6802   -0.5968    0.1666 C   0  0  0  0  0  0  0  0  0  0  0  0
   -2.4087   -0.7168    0.4216 C   0  0  0  0  0  0  0  0  0  0  0  0
    0.0765    2.1287    1.3065 C   0  0  0  0  0  0  0  0  0  0  0  0
    2.4159   -1.1686    1.1803 C   0  0  0  0  0  0  0  0  0  0  0  0
   -0.4967    1.6972   -1.0005 C   0  0  0  0  0  0  0  0  0  0  0  0
    2.2013   -0.3573   -1.0852 C   0  0  0  0  0  0  0  0  0  0  0  0
   -0.2023    3.4830    1.1225 C   0  0  0  0  0  0  0  0  0  0  0  0
    3.7423   -1.5194    0.9291 C   0  0  0  0  0  0  0  0  0  0  0  0
   -0.7755    3.0515   -1.1845 C   0  0  0  0  0  0  0  0  0  0  0  0
    3.5277   -0.7082   -1.3365 C   0  0  0  0  0  0  0  0  0  0  0  0
   -0.6282    3.9444   -0.1231 C   0  0  0  0  0  0  0  0  0  0  0  0
    4.2982   -1.2893   -0.3294 C   0  0  0  0  0  0  0  0  0  0  0  0
   -3.6479   -1.4286   -0.0566 C   0  0  0  0  0  0  0  0  0  0  0  0
    0.0248   -0.4437    1.4975 H   0  0  0  0  0  0  0  0  0  0  0  0
   -2.2674   -0.8543    1.4980 H   0  0  0  0  0  0  0  0  0  0  0  0
   -2.5699    0.3456    0.2256 H   0  0  0  0  0  0  0  0  0  0  0  0
    0.4092    1.7839    2.2820 H   0  0  0  0  0  0  0  0  0  0  0  0
    1.9940   -1.3531    2.1633 H   0  0  0  0  0  0  0  0  0  0  0  0
   -0.6083    1.0390   -1.8568 H   0  0  0  0  0  0  0  0  0  0  0  0
    1.6198    0.0793   -1.8892 H   0  0  0  0  0  0  0  0  0  0  0  0
   -0.0871    4.1785    1.9487 H   0  0  0  0  0  0  0  0  0  0  0  0
    4.3423   -1.9722    1.7131 H   0  0  0  0  0  0  0  0  0  0  0  0
   -1.1036    3.4118   -2.1551 H   0  0  0  0  0  0  0  0  0  0  0  0
    3.9598   -0.5323   -2.3173 H   0  0  0  0  0  0  0  0  0  0  0  0
   -0.8442    4.9990   -0.2667 H   0  0  0  0  0  0  0  0  0  0  0  0
    5.3308   -1.5633   -0.5253 H   0  0  0  0  0  0  0  0  0  0  0  0
   -5.1667   -2.6164    0.7398 H   0  0  0  0  0  0  0  0  0  0  0  0
   -4.0022   -2.1050    1.9058 H   0  0  0  0  0  0  0  0  0  0  0  0
  1  2  2  0  0  0  0
  1  5  1  0  0  0  0
  1  8  1  0  0  0  0
  3 19  2  0  0  0  0
  4 19  1  0  0  0  0
  4 33  1  0  0  0  0
  4 34  1  0  0  0  0
  5  6  1  0  0  0  0
  5  7  1  0  0  0  0
  5 20  1  0  0  0  0
  6  9  2  0  0  0  0
  6 11  1  0  0  0  0
  7 10  2  0  0  0  0
  7 12  1  0  0  0  0
  8 19  1  0  0  0  0
  8 21  1  0  0  0  0
  8 22  1  0  0  0  0
  9 13  1  0  0  0  0
  9 23  1  0  0  0  0
 10 14  1  0  0  0  0
 10 24  1  0  0  0  0
 11 15  2  0  0  0  0
 11 25  1  0  0  0  0
 12 16  2  0  0  0  0
 12 26  1  0  0  0  0
 13 17  2  0  0  0  0
 13 27  1  0  0  0  0
 14 18  2  0  0  0  0
 14 28  1  0  0  0  0
 15 17  1  0  0  0  0
 15 29  1  0  0  0  0
 16 18  1  0  0  0  0
 16 30  1  0  0  0  0
 17 31  1  0  0  0  0
 18 32  1  0  0  0  0
M  END
> <PUBCHEM_COMPOUND_CID>
4236

> <PUBCHEM_CONFORMER_RMSD>
0.6

> <PUBCHEM_CONFORMER_DIVERSEORDER>
1
23
7
31
30
6
9
20
34
21
26
36
12
16
29
15
25
33
27
37
10
19
28
32
35
18
13
5
11
8
38
22
24
17
3
4
14
2

> <PUBCHEM_MMFF94_PARTIAL_CHARGES>
31
1 0.11
10 -0.15
11 -0.15
12 -0.15
13 -0.15
14 -0.15
15 -0.15
16 -0.15
17 -0.15
18 -0.15
19 0.57
2 -0.5
23 0.15
24 0.15
25 0.15
26 0.15
27 0.15
28 0.15
29 0.15
3 -0.57
30 0.15
31 0.15
32 0.15
33 0.37
34 0.37
4 -0.8
5 0.48
6 -0.14
7 -0.14
8 0.25
9 -0.15

> <PUBCHEM_EFFECTIVE_ROTOR_COUNT>
5

> <PUBCHEM_PHARMACOPHORE_FEATURES>
5
1 2 acceptor
1 3 acceptor
1 4 donor
6 6 9 11 13 15 17 rings
6 7 10 12 14 16 18 rings

> <PUBCHEM_HEAVY_ATOM_COUNT>
19

> <PUBCHEM_ATOM_DEF_STEREO_COUNT>
0

> <PUBCHEM_ATOM_UDEF_STEREO_COUNT>
1

> <PUBCHEM_BOND_DEF_STEREO_COUNT>
0

> <PUBCHEM_BOND_UDEF_STEREO_COUNT>
0

> <PUBCHEM_ISOTOPIC_ATOM_COUNT>
0

> <PUBCHEM_COMPONENT_COUNT>
1

> <PUBCHEM_CACTVS_TAUTO_COUNT>
2

> <PUBCHEM_CONFORMER_ID>
0000108C00000001

> <PUBCHEM_MMFF94_ENERGY>
49.1352

> <PUBCHEM_FEATURE_SELFOVERLAP>
25.371

> <PUBCHEM_SHAPE_MULTIPOLES>
378.14
6.38
4.22
1.32
-1.78
-2.16
-0.11
0.04
1.9
2.3
-1.6
-0.04
11.78
-19.29

> <PUBCHEM_SHAPE_SELFOVERLAP>
788.105

> <PUBCHEM_SHAPE_VOLUME>
213.9

> <PUBCHEM_COORDINATE_TYPE>
2
5
255

$$$$

