6426856
  -OEChem-04251011363D

 64 67  0     0  0  0  0  0  0999 V2000
    4.1040    0.4254    1.8630 S   0  0  0  0  0  0  0  0  0  0  0  0
    4.7901    1.5937    2.3722 O   0  0  0  0  0  0  0  0  0  0  0  0
    3.8252   -0.7077    2.7191 O   0  0  0  0  0  0  0  0  0  0  0  0
   -0.9879    2.2351   -0.5029 O   0  0  0  0  0  0  0  0  0  0  0  0
   -1.2016   -3.9306   -0.0201 O   0  0  0  0  0  0  0  0  0  0  0  0
   -6.7876    2.8522   -1.9832 O   0  0  0  0  0  0  0  0  0  0  0  0
    4.9084   -0.1259    0.4553 N   0  0  0  0  0  0  0  0  0  0  0  0
    5.6243   -0.7447   -2.2600 N   0  0  0  0  0  0  0  0  0  0  0  0
   -2.1152    0.0217    0.4430 N   0  0  0  0  0  0  0  0  0  0  0  0
   -4.0026   -2.8475    0.1189 N   0  0  0  0  0  0  0  0  0  0  0  0
   -5.0550   -2.0053    0.2172 N   0  0  0  0  0  0  0  0  0  0  0  0
   -0.4880   -1.7501    0.2307 N   0  0  0  0  0  0  0  0  0  0  0  0
    5.3808    0.9405   -0.4727 C   0  0  0  0  0  0  0  0  0  0  0  0
    4.2271   -1.2271   -0.2829 C   0  0  0  0  0  0  0  0  0  0  0  0
    6.3061    0.3290   -1.5237 C   0  0  0  0  0  0  0  0  0  0  0  0
    5.1745   -1.7968   -1.3376 C   0  0  0  0  0  0  0  0  0  0  0  0
    2.5777    0.9612    1.1561 C   0  0  0  0  0  0  0  0  0  0  0  0
    6.5033   -1.3027   -3.2870 C   0  0  0  0  0  0  0  0  0  0  0  0
    1.5268    0.0645    1.0511 C   0  0  0  0  0  0  0  0  0  0  0  0
    0.3209    0.4881    0.4923 C   0  0  0  0  0  0  0  0  0  0  0  0
    2.4557    2.2698    0.7178 C   0  0  0  0  0  0  0  0  0  0  0  0
   -3.0922   -0.8920    0.3420 C   0  0  0  0  0  0  0  0  0  0  0  0
   -0.8133   -0.4853    0.3816 C   0  0  0  0  0  0  0  0  0  0  0  0
    0.1823    1.8024    0.0458 C   0  0  0  0  0  0  0  0  0  0  0  0
   -4.4845   -0.8007    0.3536 C   0  0  0  0  0  0  0  0  0  0  0  0
    1.2497    2.6932    0.1588 C   0  0  0  0  0  0  0  0  0  0  0  0
   -2.7956   -2.2170    0.1880 C   0  0  0  0  0  0  0  0  0  0  0  0
   -5.3255    0.3994    0.4908 C   0  0  0  0  0  0  0  0  0  0  0  0
   -5.6742    1.0551   -0.8582 C   0  0  0  0  0  0  0  0  0  0  0  0
   -1.4595   -2.7409    0.1204 C   0  0  0  0  0  0  0  0  0  0  0  0
   -4.2449   -4.2614   -0.0446 C   0  0  0  0  0  0  0  0  0  0  0  0
   -6.4995    2.3239   -0.6961 C   0  0  0  0  0  0  0  0  0  0  0  0
   -1.3121    3.6133   -0.3329 C   0  0  0  0  0  0  0  0  0  0  0  0
   -2.8180    3.7672   -0.3158 C   0  0  0  0  0  0  0  0  0  0  0  0
    5.9410    1.7009    0.0807 H   0  0  0  0  0  0  0  0  0  0  0  0
    4.5319    1.4217   -0.9692 H   0  0  0  0  0  0  0  0  0  0  0  0
    3.9492   -2.0287    0.4091 H   0  0  0  0  0  0  0  0  0  0  0  0
    3.3252   -0.8599   -0.7831 H   0  0  0  0  0  0  0  0  0  0  0  0
    7.2153   -0.0512   -1.0386 H   0  0  0  0  0  0  0  0  0  0  0  0
    6.6108    1.1214   -2.2179 H   0  0  0  0  0  0  0  0  0  0  0  0
    4.6419   -2.5774   -1.8941 H   0  0  0  0  0  0  0  0  0  0  0  0
    6.0331   -2.2719   -0.8441 H   0  0  0  0  0  0  0  0  0  0  0  0
    5.9794   -2.0728   -3.8642 H   0  0  0  0  0  0  0  0  0  0  0  0
    7.4095   -1.7477   -2.8605 H   0  0  0  0  0  0  0  0  0  0  0  0
    6.8028   -0.5262   -3.9996 H   0  0  0  0  0  0  0  0  0  0  0  0
    1.6374   -0.9552    1.4081 H   0  0  0  0  0  0  0  0  0  0  0  0
    3.2772    2.9761    0.7880 H   0  0  0  0  0  0  0  0  0  0  0  0
    1.1979    3.7158   -0.2031 H   0  0  0  0  0  0  0  0  0  0  0  0
   -2.2918    1.0113    0.5786 H   0  0  0  0  0  0  0  0  0  0  0  0
   -6.2552    0.1453    1.0161 H   0  0  0  0  0  0  0  0  0  0  0  0
   -4.8133    1.1342    1.1248 H   0  0  0  0  0  0  0  0  0  0  0  0
   -4.7565    1.2882   -1.4138 H   0  0  0  0  0  0  0  0  0  0  0  0
   -6.2200    0.3410   -1.4889 H   0  0  0  0  0  0  0  0  0  0  0  0
   -5.3218   -4.4494   -0.0587 H   0  0  0  0  0  0  0  0  0  0  0  0
   -3.7887   -4.7893    0.7962 H   0  0  0  0  0  0  0  0  0  0  0  0
   -3.8016   -4.5802   -0.9910 H   0  0  0  0  0  0  0  0  0  0  0  0
   -5.9491    3.0815   -0.1306 H   0  0  0  0  0  0  0  0  0  0  0  0
   -7.4441    2.1245   -0.1802 H   0  0  0  0  0  0  0  0  0  0  0  0
   -0.8923    4.1876   -1.1660 H   0  0  0  0  0  0  0  0  0  0  0  0
   -0.9327    4.0096    0.6174 H   0  0  0  0  0  0  0  0  0  0  0  0
   -3.1028    4.8178   -0.2099 H   0  0  0  0  0  0  0  0  0  0  0  0
   -3.2554    3.3754   -1.2398 H   0  0  0  0  0  0  0  0  0  0  0  0
   -3.2559    3.1999    0.5116 H   0  0  0  0  0  0  0  0  0  0  0  0
   -7.3044    2.1848   -2.4660 H   0  0  0  0  0  0  0  0  0  0  0  0
  1  2  2  0  0  0  0
  1  3  2  0  0  0  0
  1  7  1  0  0  0  0
  1 17  1  0  0  0  0
  4 24  1  0  0  0  0
  4 33  1  0  0  0  0
  5 30  2  0  0  0  0
  6 32  1  0  0  0  0
  6 64  1  0  0  0  0
  7 13  1  0  0  0  0
  7 14  1  0  0  0  0
  8 15  1  0  0  0  0
  8 16  1  0  0  0  0
  8 18  1  0  0  0  0
  9 22  1  0  0  0  0
  9 23  1  0  0  0  0
  9 49  1  0  0  0  0
 10 11  1  0  0  0  0
 10 27  1  0  0  0  0
 10 31  1  0  0  0  0
 11 25  2  0  0  0  0
 12 23  2  0  0  0  0
 12 30  1  0  0  0  0
 13 15  1  0  0  0  0
 13 35  1  0  0  0  0
 13 36  1  0  0  0  0
 14 16  1  0  0  0  0
 14 37  1  0  0  0  0
 14 38  1  0  0  0  0
 15 39  1  0  0  0  0
 15 40  1  0  0  0  0
 16 41  1  0  0  0  0
 16 42  1  0  0  0  0
 17 19  2  0  0  0  0
 17 21  1  0  0  0  0
 18 43  1  0  0  0  0
 18 44  1  0  0  0  0
 18 45  1  0  0  0  0
 19 20  1  0  0  0  0
 19 46  1  0  0  0  0
 20 23  1  0  0  0  0
 20 24  2  0  0  0  0
 21 26  2  0  0  0  0
 21 47  1  0  0  0  0
 22 25  1  0  0  0  0
 22 27  2  0  0  0  0
 24 26  1  0  0  0  0
 25 28  1  0  0  0  0
 26 48  1  0  0  0  0
 27 30  1  0  0  0  0
 28 29  1  0  0  0  0
 28 50  1  0  0  0  0
 28 51  1  0  0  0  0
 29 32  1  0  0  0  0
 29 52  1  0  0  0  0
 29 53  1  0  0  0  0
 31 54  1  0  0  0  0
 31 55  1  0  0  0  0
 31 56  1  0  0  0  0
 32 57  1  0  0  0  0
 32 58  1  0  0  0  0
 33 34  1  0  0  0  0
 33 59  1  0  0  0  0
 33 60  1  0  0  0  0
 34 61  1  0  0  0  0
 34 62  1  0  0  0  0
 34 63  1  0  0  0  0
M  END
> <PUBCHEM_COMPOUND_CID>
6426856

> <PUBCHEM_CONFORMER_RMSD>
1

> <PUBCHEM_MMFF94_PARTIAL_CHARGES>
37
1 1.45
10 0.31
11 -0.71
12 -0.66
13 0.36
14 0.36
15 0.27
16 0.27
17 -0.01
18 0.27
19 -0.15
2 -0.65
20 0.09
21 -0.15
22 0.08
23 0.41
24 0.08
25 0.11
26 -0.15
27 -0.24
28 0.18
3 -0.65
30 0.87
31 0.26
32 0.28
33 0.28
4 -0.36
46 0.15
47 0.15
48 0.15
49 0.4
5 -0.57
6 -0.68
64 0.4
7 -0.85
8 -0.81
9 -0.53

> <PUBCHEM_EFFECTIVE_ROTOR_COUNT>
9.2

> <PUBCHEM_PHARMACOPHORE_FEATURES>
14
1 11 acceptor
1 12 donor
1 2 acceptor
1 3 acceptor
1 4 acceptor
1 5 acceptor
1 6 acceptor
1 6 donor
1 8 cation
1 9 donor
5 10 11 22 25 27 rings
6 17 19 20 21 24 26 rings
6 7 8 13 14 15 16 rings
6 9 12 22 23 27 30 rings

> <PUBCHEM_HEAVY_ATOM_COUNT>
34

> <PUBCHEM_ATOM_DEF_STEREO_COUNT>
0

> <PUBCHEM_ATOM_UDEF_STEREO_COUNT>
0

> <PUBCHEM_BOND_DEF_STEREO_COUNT>
0

> <PUBCHEM_BOND_UDEF_STEREO_COUNT>
0

> <PUBCHEM_ISOTOPIC_ATOM_COUNT>
0

> <PUBCHEM_COMPONENT_COUNT>
1

> <PUBCHEM_CACTVS_TAUTO_COUNT>
3

> <PUBCHEM_CONFORMER_ID>
006210E800000002

> <PUBCHEM_MMFF94_ENERGY>
71.2448

> <PUBCHEM_FEATURE_SELFOVERLAP>
-14.031

> <PUBCHEM_SHAPE_MULTIPOLES>
644.32
16.62
4.59
1.9
-0.18
1.09
10.02
-13.77
13.77
-0.75
15.36
15.1
19.17
-0.11

> <PUBCHEM_SHAPE_SELFOVERLAP>
1361.491

> <PUBCHEM_SHAPE_VOLUME>
364.5

> <PUBCHEM_COORDINATE_TYPE>
2
5
255

$$$$

