521727
  -OEChem-04251011093D

 53 55  0     1  0  0  0  0  0999 V2000
   -0.3229    1.8390   -0.0384 O   0  0  0  0  0  0  0  0  0  0  0  0
   -0.9494   -2.6039   -1.3697 O   0  0  0  0  0  0  0  0  0  0  0  0
    2.1227   -0.9879   -0.0074 C   0  0  2  0  0  0  0  0  0  0  0  0
    1.2820   -2.0062   -0.7734 C   0  0  0  0  0  0  0  0  0  0  0  0
    1.5940    0.4234   -0.2954 C   0  0  0  0  0  0  0  0  0  0  0  0
   -0.1933   -1.9419   -0.3539 C   0  0  1  0  0  0  0  0  0  0  0  0
   -0.7212   -0.5351   -0.1575 C   0  0  0  0  0  0  0  0  0  0  0  0
    0.0975    0.5363   -0.1697 C   0  0  0  0  0  0  0  0  0  0  0  0
    3.5996   -1.1006   -0.3773 C   0  0  0  0  0  0  0  0  0  0  0  0
   -1.7044    2.1393   -0.3267 C   0  0  0  0  0  0  0  0  0  0  0  0
   -2.1565   -0.3052    0.1228 C   0  0  0  0  0  0  0  0  0  0  0  0
   -2.6550    1.0095    0.0440 C   0  0  0  0  0  0  0  0  0  0  0  0
    4.4518   -0.1390    0.4464 C   0  0  0  0  0  0  0  0  0  0  0  0
   -1.9780    3.4248    0.4740 C   0  0  0  0  0  0  0  0  0  0  0  0
   -1.8135    2.4499   -1.8284 C   0  0  0  0  0  0  0  0  0  0  0  0
    5.9341   -0.2780    0.0956 C   0  0  0  0  0  0  0  0  0  0  0  0
   -3.0358   -1.3456    0.4694 C   0  0  0  0  0  0  0  0  0  0  0  0
   -4.0254    1.2407    0.2630 C   0  0  0  0  0  0  0  0  0  0  0  0
   -4.3883   -1.0967    0.7042 C   0  0  0  0  0  0  0  0  0  0  0  0
    6.7890    0.7063    0.8934 C   0  0  0  0  0  0  0  0  0  0  0  0
   -4.8848    0.1950    0.5938 C   0  0  0  0  0  0  0  0  0  0  0  0
   -5.3017   -2.2185    1.0679 C   0  0  0  0  0  0  0  0  0  0  0  0
    8.2593    0.5944    0.5232 C   0  0  0  0  0  0  0  0  0  0  0  0
    2.0159   -1.1942    1.0671 H   0  0  0  0  0  0  0  0  0  0  0  0
    1.6556   -3.0243   -0.6047 H   0  0  0  0  0  0  0  0  0  0  0  0
    1.3773   -1.8361   -1.8551 H   0  0  0  0  0  0  0  0  0  0  0  0
    1.8819    0.7476   -1.3035 H   0  0  0  0  0  0  0  0  0  0  0  0
    2.0383    1.1311    0.4142 H   0  0  0  0  0  0  0  0  0  0  0  0
   -0.3157   -2.5059    0.5786 H   0  0  0  0  0  0  0  0  0  0  0  0
    3.7401   -0.8993   -1.4468 H   0  0  0  0  0  0  0  0  0  0  0  0
    3.9416   -2.1282   -0.2010 H   0  0  0  0  0  0  0  0  0  0  0  0
    4.1593    0.8988    0.2570 H   0  0  0  0  0  0  0  0  0  0  0  0
    4.3063   -0.3318    1.5160 H   0  0  0  0  0  0  0  0  0  0  0  0
   -1.9459    3.2260    1.5521 H   0  0  0  0  0  0  0  0  0  0  0  0
   -2.9466    3.8756    0.2368 H   0  0  0  0  0  0  0  0  0  0  0  0
   -1.2052    4.1775    0.2755 H   0  0  0  0  0  0  0  0  0  0  0  0
   -1.1008    3.2310   -2.1177 H   0  0  0  0  0  0  0  0  0  0  0  0
   -2.8207    2.7807   -2.1046 H   0  0  0  0  0  0  0  0  0  0  0  0
   -1.5713    1.5700   -2.4362 H   0  0  0  0  0  0  0  0  0  0  0  0
    6.2668   -1.3031    0.2990 H   0  0  0  0  0  0  0  0  0  0  0  0
    6.0756   -0.0993   -0.9774 H   0  0  0  0  0  0  0  0  0  0  0  0
   -2.6771   -2.3674    0.5667 H   0  0  0  0  0  0  0  0  0  0  0  0
   -4.4449    2.2384    0.1713 H   0  0  0  0  0  0  0  0  0  0  0  0
   -0.8920   -2.0730   -2.1829 H   0  0  0  0  0  0  0  0  0  0  0  0
    6.4502    1.7320    0.7063 H   0  0  0  0  0  0  0  0  0  0  0  0
    6.6715    0.5165    1.9666 H   0  0  0  0  0  0  0  0  0  0  0  0
   -5.9380    0.4042    0.7604 H   0  0  0  0  0  0  0  0  0  0  0  0
   -4.7935   -2.9435    1.7129 H   0  0  0  0  0  0  0  0  0  0  0  0
   -6.1771   -1.8582    1.6190 H   0  0  0  0  0  0  0  0  0  0  0  0
   -5.6462   -2.7305    0.1640 H   0  0  0  0  0  0  0  0  0  0  0  0
    8.6394   -0.4118    0.7265 H   0  0  0  0  0  0  0  0  0  0  0  0
    8.8523    1.3059    1.1064 H   0  0  0  0  0  0  0  0  0  0  0  0
    8.4145    0.8127   -0.5383 H   0  0  0  0  0  0  0  0  0  0  0  0
  1  8  1  0  0  0  0
  1 10  1  0  0  0  0
  2  6  1  0  0  0  0
  2 44  1  0  0  0  0
  3  4  1  0  0  0  0
  3  5  1  0  0  0  0
  3  9  1  0  0  0  0
  3 24  1  0  0  0  0
  4  6  1  0  0  0  0
  4 25  1  0  0  0  0
  4 26  1  0  0  0  0
  5  8  1  0  0  0  0
  5 27  1  0  0  0  0
  5 28  1  0  0  0  0
  6  7  1  0  0  0  0
  6 29  1  0  0  0  0
  7  8  2  0  0  0  0
  7 11  1  0  0  0  0
  9 13  1  0  0  0  0
  9 30  1  0  0  0  0
  9 31  1  0  0  0  0
 10 12  1  0  0  0  0
 10 14  1  0  0  0  0
 10 15  1  0  0  0  0
 11 12  2  0  0  0  0
 11 17  1  0  0  0  0
 12 18  1  0  0  0  0
 13 16  1  0  0  0  0
 13 32  1  0  0  0  0
 13 33  1  0  0  0  0
 14 34  1  0  0  0  0
 14 35  1  0  0  0  0
 14 36  1  0  0  0  0
 15 37  1  0  0  0  0
 15 38  1  0  0  0  0
 15 39  1  0  0  0  0
 16 20  1  0  0  0  0
 16 40  1  0  0  0  0
 16 41  1  0  0  0  0
 17 19  2  0  0  0  0
 17 42  1  0  0  0  0
 18 21  2  0  0  0  0
 18 43  1  0  0  0  0
 19 21  1  0  0  0  0
 19 22  1  0  0  0  0
 20 23  1  0  0  0  0
 20 45  1  0  0  0  0
 20 46  1  0  0  0  0
 21 47  1  0  0  0  0
 22 48  1  0  0  0  0
 22 49  1  0  0  0  0
 22 50  1  0  0  0  0
 23 51  1  0  0  0  0
 23 52  1  0  0  0  0
 23 53  1  0  0  0  0
M  END
> <PUBCHEM_COMPOUND_CID>
521727

> <PUBCHEM_CONFORMER_RMSD>
0.8

> <PUBCHEM_MMFF94_PARTIAL_CHARGES>
18
1 -0.36
10 0.42
11 0.03
12 -0.14
17 -0.15
18 -0.15
19 -0.14
2 -0.68
21 -0.15
22 0.14
42 0.15
43 0.15
44 0.4
47 0.15
5 0.14
6 0.42
7 -0.17
8 -0.06

> <PUBCHEM_EFFECTIVE_ROTOR_COUNT>
5.2

> <PUBCHEM_PHARMACOPHORE_FEATURES>
9
1 1 acceptor
1 2 acceptor
1 2 donor
1 23 hydrophobe
3 10 14 15 hydrophobe
4 9 13 16 20 hydrophobe
6 1 7 8 10 11 12 rings
6 11 12 17 18 19 21 rings
6 3 4 5 6 7 8 rings

> <PUBCHEM_HEAVY_ATOM_COUNT>
23

> <PUBCHEM_ATOM_DEF_STEREO_COUNT>
0

> <PUBCHEM_ATOM_UDEF_STEREO_COUNT>
2

> <PUBCHEM_BOND_DEF_STEREO_COUNT>
0

> <PUBCHEM_BOND_UDEF_STEREO_COUNT>
0

> <PUBCHEM_ISOTOPIC_ATOM_COUNT>
0

> <PUBCHEM_COMPONENT_COUNT>
1

> <PUBCHEM_CACTVS_TAUTO_COUNT>
1

> <PUBCHEM_CONFORMER_ID>
0007F5FF00000019

> <PUBCHEM_MMFF94_ENERGY>
51.8102

> <PUBCHEM_FEATURE_SELFOVERLAP>
-9.009

> <PUBCHEM_SHAPE_MULTIPOLES>
461.59
14.46
2.92
1.04
28.71
1.05
5.44
-8.8
-18.57
-0.46
12.9
4.81
33.91
-1.41

> <PUBCHEM_SHAPE_SELFOVERLAP>
969.639

> <PUBCHEM_SHAPE_VOLUME>
260.9

> <PUBCHEM_COORDINATE_TYPE>
2
5
255

$$$$

